/*--------------------------------*- C++ -*----------------------------------*\
| =========                 |                                                 |
| \\      /  F ield         | OpenFOAM: The Open Source CFD Toolbox           |
|  \\    /   O peration     | Version:  5                                     |
|   \\  /    A nd           | Web:      www.OpenFOAM.org                      |
|    \\/     M anipulation  |                                                 |
\*---------------------------------------------------------------------------*/
FoamFile
{
    version     2.0;
    format      ascii;
    class       volVectorField;
    object      U;
}
// * * * * * * * * * * * * * * * * * * * * * * * * * * * * * * * * * * * * * //

dimensions      [0 1 -1 0 0 0 0];

internalField   uniform (9.95184726672197 0.980171403295606 0);

boundaryField
{
    inlet
    {
        type            freestream;
        freestreamValue uniform (9.95184726672197 0.980171403295606 0);
    }

    exit
    {
        type            freestream;
        freestreamValue uniform (9.95184726672197 0.980171403295606 0);
    }

    top
    {
        type            freestream;
        freestreamValue uniform (9.95184726672197 0.980171403295606 0);
    }

    bottom
    {
        type            freestream;
        freestreamValue uniform (9.95184726672197 0.980171403295606 0);
    }

    aerofoil
    {
        type            fixedValue;
	    value		uniform (0 0 0);
    }

    front
    {
        type            empty;
    }

    back
    {
        type            empty;
    }
}

// ************************************************************************* //
